Version 4
SHEET 1 1776 1008
WIRE -416 -112 -1120 -112
WIRE 368 -112 -416 -112
WIRE 48 0 -64 0
WIRE 208 0 48 0
WIRE -736 16 -848 16
WIRE -576 16 -736 16
WIRE 1072 16 960 16
WIRE 1232 16 1072 16
WIRE -1440 32 -1552 32
WIRE -1280 32 -1440 32
WIRE -144 32 -144 0
WIRE -928 48 -928 16
WIRE 880 48 880 16
WIRE -1632 64 -1632 32
WIRE 240 80 112 80
WIRE 336 80 320 80
WIRE -544 96 -672 96
WIRE -448 96 -464 96
WIRE 1264 96 1136 96
WIRE 1360 96 1344 96
WIRE -1248 112 -1376 112
WIRE -1152 112 -1168 112
WIRE -576 128 -576 16
WIRE 112 128 112 80
WIRE 112 128 -32 128
WIRE 176 128 112 128
WIRE 1232 128 1232 16
WIRE -672 144 -672 96
WIRE -672 144 -816 144
WIRE -608 144 -672 144
WIRE -32 144 -32 128
WIRE -32 144 -112 144
WIRE 256 144 240 144
WIRE 336 144 336 80
WIRE 336 144 320 144
WIRE 368 144 368 -112
WIRE 368 144 336 144
WIRE 1136 144 1136 96
WIRE 1136 144 992 144
WIRE 1200 144 1136 144
WIRE -1376 160 -1376 112
WIRE -1376 160 -1520 160
WIRE -1312 160 -1376 160
WIRE -816 160 -816 144
WIRE -816 160 -896 160
WIRE -528 160 -544 160
WIRE -448 160 -448 96
WIRE -448 160 -464 160
WIRE -416 160 -416 -112
WIRE -416 160 -448 160
WIRE -112 160 -112 144
WIRE -32 160 -32 144
WIRE 48 160 48 80
WIRE 176 160 48 160
WIRE 1360 160 1360 96
WIRE 1360 160 1264 160
WIRE 1392 160 1360 160
WIRE -1520 176 -1520 160
WIRE -1520 176 -1600 176
WIRE -1232 176 -1248 176
WIRE -1152 176 -1152 112
WIRE -1152 176 -1168 176
WIRE -1120 176 -1120 -112
WIRE -1120 176 -1152 176
WIRE -896 176 -896 160
WIRE -816 176 -816 160
WIRE -736 176 -736 96
WIRE -608 176 -736 176
WIRE 992 176 992 144
WIRE 1072 176 1072 96
WIRE 1200 176 1072 176
WIRE -1600 192 -1600 176
WIRE -1520 192 -1520 176
WIRE -1440 192 -1440 112
WIRE -1312 192 -1440 192
WIRE 48 192 48 160
WIRE -736 208 -736 176
WIRE 1072 208 1072 176
WIRE -1440 224 -1440 192
WIRE 368 240 368 224
WIRE -112 256 -112 224
WIRE -32 256 -32 240
WIRE -32 256 -112 256
WIRE 208 256 208 176
WIRE 1392 256 1392 240
WIRE -896 272 -896 240
WIRE -816 272 -816 256
WIRE -816 272 -896 272
WIRE -576 272 -576 192
WIRE 1232 272 1232 192
WIRE -1600 288 -1600 256
WIRE -1520 288 -1520 272
WIRE -1520 288 -1600 288
WIRE -1280 288 -1280 208
WIRE -32 288 -32 256
WIRE -816 304 -816 272
WIRE 992 304 992 256
WIRE -1520 320 -1520 288
WIRE -1584 640 -1600 640
WIRE -1600 656 -1600 640
WIRE -1440 784 -1568 784
WIRE -1504 816 -1504 640
WIRE -1568 832 -1568 784
WIRE -1536 832 -1568 832
WIRE -1440 848 -1440 784
WIRE -1440 848 -1472 848
WIRE -1376 848 -1440 848
WIRE -1536 864 -1696 864
WIRE -1696 912 -1696 864
FLAG -144 32 0
FLAG -32 288 0
FLAG 368 240 0
FLAG 48 272 0
FLAG 880 48 0
FLAG 992 304 0
FLAG 1232 272 0
FLAG 1392 256 0
FLAG 1072 288 0
FLAG 208 336 0
FLAG -928 48 0
FLAG -816 304 0
FLAG -736 288 0
FLAG -576 352 0
FLAG -1632 64 0
FLAG -1520 320 0
FLAG -1440 304 0
FLAG -1280 368 0
FLAG -1504 880 0
FLAG -1600 656 0
FLAG -1696 992 0
FLAG -1376 928 0
SYMBOL voltage -48 0 R90
WINDOW 0 -32 56 VBottom 2
WINDOW 3 32 56 VTop 2
WINDOW 123 0 0 Left 0
WINDOW 39 0 0 Left 0
SYMATTR InstName V1
SYMATTR Value +9
SYMBOL current -32 160 R0
WINDOW 123 0 0 Left 0
WINDOW 39 0 0 Left 0
SYMATTR InstName I1
SYMATTR Value 100p
SYMBOL OpAmps\\TL074 208 80 R0
SYMATTR InstName U1
SYMBOL res 352 128 R0
SYMATTR InstName R3
SYMATTR Value 10k
SYMBOL res 32 -16 R0
SYMATTR InstName R5
SYMATTR Value 890
SYMBOL res 32 176 R0
SYMATTR InstName R6
SYMATTR Value 10
SYMBOL OpAmps\\OP1177 1232 96 R0
SYMATTR InstName U3
SYMBOL voltage 976 16 R90
WINDOW 0 -32 56 VBottom 2
WINDOW 3 32 56 VTop 2
WINDOW 123 0 0 Left 0
WINDOW 39 0 0 Left 0
SYMATTR InstName V2
SYMATTR Value 9
SYMBOL res 1360 80 R90
WINDOW 0 0 56 VBottom 2
WINDOW 3 32 56 VTop 2
SYMATTR InstName R2
SYMATTR Value 2.5Meg
SYMBOL current 992 176 R0
WINDOW 123 0 0 Left 0
WINDOW 39 0 0 Left 0
SYMATTR InstName I2
SYMATTR Value 1µ
SYMBOL res 1376 144 R0
SYMATTR InstName R4
SYMATTR Value 50k
SYMBOL res 1056 0 R0
SYMATTR InstName R7
SYMATTR Value 890
SYMBOL res 1056 192 R0
SYMATTR InstName R8
SYMATTR Value 10
SYMBOL cap -128 160 R0
SYMATTR InstName C1
SYMATTR Value 200p
SYMBOL voltage 208 240 R0
WINDOW 0 -32 56 VBottom 2
WINDOW 3 32 56 VTop 2
WINDOW 123 0 0 Left 0
WINDOW 39 0 0 Left 0
SYMATTR InstName V3
SYMATTR Value -5
SYMBOL voltage -832 16 R90
WINDOW 0 -32 56 VBottom 2
WINDOW 3 32 56 VTop 2
WINDOW 123 0 0 Left 0
WINDOW 39 0 0 Left 0
SYMATTR InstName V4
SYMATTR Value +9
SYMBOL res -448 80 R90
WINDOW 0 0 56 VBottom 2
WINDOW 3 32 56 VTop 2
SYMATTR InstName R9
SYMATTR Value 5Meg
SYMBOL OpAmps\\TL074 -576 96 R0
SYMATTR InstName U2
SYMBOL res -752 0 R0
SYMATTR InstName R11
SYMATTR Value 890
SYMBOL res -752 192 R0
SYMATTR InstName R12
SYMATTR Value 10
SYMBOL cap -912 176 R0
SYMATTR InstName C2
SYMATTR Value 200p
SYMBOL voltage -576 256 R0
WINDOW 0 -32 56 VBottom 2
WINDOW 3 32 56 VTop 2
WINDOW 123 0 0 Left 0
WINDOW 39 0 0 Left 0
SYMATTR InstName V5
SYMATTR Value -5
SYMBOL voltage -1536 32 R90
WINDOW 0 -32 56 VBottom 2
WINDOW 3 32 56 VTop 2
WINDOW 123 0 0 Left 0
WINDOW 39 0 0 Left 0
SYMATTR InstName V6
SYMATTR Value +9
SYMBOL OpAmps\\TL074 -1280 112 R0
SYMATTR InstName U4
SYMBOL res -1456 16 R0
SYMATTR InstName R15
SYMATTR Value 890
SYMBOL res -1456 208 R0
SYMATTR InstName R16
SYMATTR Value 10
SYMBOL cap -1616 192 R0
SYMATTR InstName C3
SYMATTR Value 200p
SYMBOL voltage -1280 272 R0
WINDOW 0 -32 56 VBottom 2
WINDOW 3 32 56 VTop 2
WINDOW 123 0 0 Left 0
WINDOW 39 0 0 Left 0
SYMATTR InstName V7
SYMATTR Value -5
SYMBOL schottky -528 176 R270
WINDOW 0 32 32 VTop 2
WINDOW 3 0 32 VBottom 2
SYMATTR InstName D1
SYMATTR Value BAT54
SYMATTR Description Diode
SYMATTR Type diode
SYMBOL schottky 256 160 R270
WINDOW 0 32 32 VTop 2
WINDOW 3 0 32 VBottom 2
SYMATTR InstName D2
SYMATTR Value BAT54
SYMATTR Description Diode
SYMATTR Type diode
SYMBOL schottky -1232 192 R270
WINDOW 0 32 32 VTop 2
WINDOW 3 0 32 VBottom 2
SYMATTR InstName D3
SYMATTR Value BAT54
SYMATTR Description Diode
SYMATTR Type diode
SYMBOL current -816 176 R0
WINDOW 123 0 0 Left 0
WINDOW 39 0 0 Left 0
SYMATTR InstName I3
SYMATTR Value SINE(500n 500n 1k)
SYMBOL current -1520 192 R0
WINDOW 123 0 0 Left 0
WINDOW 39 0 0 Left 0
SYMATTR InstName I4
SYMATTR Value 100p
SYMBOL res -1152 96 R90
WINDOW 0 0 56 VBottom 2
WINDOW 3 32 56 VTop 2
SYMATTR InstName R1
SYMATTR Value 5Meg
SYMBOL res 336 64 R90
WINDOW 0 0 56 VBottom 2
WINDOW 3 32 56 VTop 2
SYMATTR InstName R10
SYMATTR Value 5Meg
SYMBOL voltage -1696 896 R0
WINDOW 0 -32 56 VBottom 2
WINDOW 3 32 56 VTop 2
WINDOW 123 0 0 Left 0
WINDOW 39 0 0 Left 0
SYMATTR InstName V8
SYMATTR Value 5
SYMBOL voltage -1488 640 R90
WINDOW 0 -32 56 VBottom 2
WINDOW 3 32 56 VTop 2
WINDOW 123 0 0 Left 0
WINDOW 39 0 0 Left 0
SYMATTR InstName V9
SYMATTR Value 9
SYMBOL res -1392 832 R0
SYMATTR InstName R13
SYMATTR Value 250
SYMBOL OpAmps\\LT1723 -1504 784 R0
SYMATTR InstName U6
TEXT -64 440 Left 2 !.include TL074.301
TEXT -504 440 Left 2 !;tran 10ms
TEXT -504 400 Left 2 !.dc I3 500p 1.5u 100p
