Version 4
SHEET 1 4348 1984
WIRE 480 -32 128 -32
WIRE 640 -32 480 -32
WIRE 848 -32 736 -32
WIRE 960 -32 848 -32
WIRE 992 -32 960 -32
WIRE 1120 -32 992 -32
WIRE 1120 -16 1120 -32
WIRE 128 64 128 -32
WIRE 480 64 480 -32
WIRE 544 64 480 64
WIRE 688 64 688 32
WIRE 688 64 624 64
WIRE 688 96 688 64
WIRE 1120 96 1120 64
WIRE 960 112 960 -32
WIRE 688 176 688 160
WIRE 1248 176 1168 176
WIRE 1248 192 1248 176
WIRE 960 208 960 192
WIRE 1120 208 1120 192
WIRE 480 272 480 64
WIRE 640 272 480 272
WIRE 848 272 848 -32
WIRE 848 272 736 272
WIRE 2752 272 2704 272
WIRE 3072 272 3040 272
WIRE 3248 272 3152 272
WIRE 3408 272 3248 272
WIRE 3536 272 3504 272
WIRE 3584 272 3536 272
WIRE 3632 272 3584 272
WIRE 3680 272 3632 272
WIRE 3760 272 3680 272
WIRE 3792 272 3760 272
WIRE 3920 272 3792 272
WIRE 2576 320 2576 288
WIRE 3920 336 3920 272
WIRE 480 368 480 272
WIRE 544 368 480 368
WIRE 688 368 688 336
WIRE 688 368 624 368
WIRE 3248 368 3248 272
WIRE 3312 368 3248 368
WIRE 3456 368 3456 336
WIRE 3456 368 3392 368
WIRE 688 400 688 368
WIRE 3456 400 3456 368
WIRE 2704 432 2704 272
WIRE 2752 432 2704 432
WIRE 3920 464 3920 416
WIRE 688 480 688 464
WIRE 3456 480 3456 464
WIRE 3760 480 3760 272
WIRE 2896 528 2896 496
WIRE 3216 528 3216 432
WIRE 3584 528 3584 272
WIRE 3584 528 3216 528
WIRE 4048 544 3968 544
WIRE 4048 560 4048 544
WIRE 480 576 480 368
WIRE 640 576 480 576
WIRE 848 576 848 272
WIRE 848 576 736 576
WIRE 3760 576 3760 560
WIRE 3920 576 3920 560
WIRE 480 672 480 576
WIRE 544 672 480 672
WIRE 688 672 688 640
WIRE 688 672 624 672
WIRE 688 704 688 672
WIRE 688 784 688 768
WIRE 2352 784 2208 784
WIRE 2464 784 2352 784
WIRE 2640 784 2560 784
WIRE 2688 784 2640 784
WIRE 2736 784 2688 784
WIRE 2784 784 2736 784
WIRE 2816 784 2784 784
WIRE 3184 784 3008 784
WIRE 3280 784 3184 784
WIRE 3520 784 3280 784
WIRE 3552 784 3520 784
WIRE 3680 784 3552 784
WIRE 2208 880 2208 784
WIRE 2352 880 2352 784
WIRE 2384 880 2352 880
WIRE 2512 880 2512 848
WIRE 2512 880 2464 880
WIRE 2736 896 2736 784
WIRE 2816 896 2736 896
WIRE 2512 912 2512 880
WIRE 480 960 480 672
WIRE 640 960 480 960
WIRE 960 960 736 960
WIRE 2208 976 2208 960
WIRE 960 992 960 960
WIRE 2512 992 2512 976
WIRE 2912 992 2912 944
WIRE 3520 992 3520 784
WIRE 688 1088 688 1024
WIRE 752 1088 688 1088
WIRE 896 1088 832 1088
WIRE 2208 1088 2208 1056
WIRE 2352 1088 2352 880
WIRE 2464 1088 2352 1088
WIRE 2640 1088 2640 784
WIRE 2640 1088 2560 1088
WIRE 3520 1088 3520 1072
WIRE 960 1104 960 1072
WIRE 688 1120 688 1088
WIRE 896 1136 896 1088
WIRE 2352 1184 2352 1088
WIRE 2384 1184 2352 1184
WIRE 2512 1184 2512 1152
WIRE 2512 1184 2464 1184
WIRE 480 1216 480 960
WIRE 544 1216 480 1216
WIRE 688 1216 688 1184
WIRE 688 1216 624 1216
WIRE 2512 1216 2512 1184
WIRE 2512 1296 2512 1280
FLAG 128 224 0
FLAG 688 176 0
FLAG 688 480 0
FLAG 688 784 0
FLAG 960 1104 0
FLAG 896 1136 0
FLAG 2896 528 0
FLAG 3456 480 0
FLAG 2576 400 0
FLAG 3536 336 0
FLAG 3280 848 0
FLAG 3760 576 0
FLAG 3920 576 0
FLAG 4048 640 0
FLAG 3632 336 0
FLAG 3680 336 0
FLAG 3792 336 0
FLAG 960 208 0
FLAG 1120 208 0
FLAG 992 32 0
FLAG 1248 272 0
FLAG 3520 1088 0
FLAG 3552 848 0
FLAG 2208 1088 0
FLAG 2512 992 0
FLAG 2912 992 0
FLAG 3184 848 0
FLAG 2512 1296 0
FLAG 2784 848 0
FLAG 2688 848 0
SYMBOL voltage 128 128 R0
WINDOW 123 0 0 Left 0
WINDOW 39 0 0 Left 0
SYMATTR InstName V1
SYMATTR Value 9
SYMBOL voltage 128 48 R0
WINDOW 3 35 73 Left 2
WINDOW 123 0 0 Left 0
WINDOW 39 0 0 Left 0
SYMATTR Value SINE(0 200mV 100k)
SYMATTR InstName V2
SYMBOL npn 640 32 R270
SYMATTR InstName Q1
SYMATTR Value BCW60B
SYMBOL res 640 48 R90
WINDOW 0 0 56 VBottom 2
WINDOW 3 32 56 VTop 2
SYMATTR InstName R1
SYMATTR Value 511
SYMBOL cap 672 96 R0
SYMATTR InstName C1
SYMATTR Value 470n
SYMBOL npn 640 336 R270
SYMATTR InstName Q2
SYMATTR Value BCW60A
SYMBOL npn 640 640 R270
SYMATTR InstName Q3
SYMATTR Value BCW60C
SYMBOL res 944 976 R0
SYMATTR InstName R5
SYMATTR Value 500
SYMBOL pnp 736 1024 M270
SYMATTR InstName Q4
SYMBOL res 736 1072 M90
WINDOW 0 0 56 VBottom 2
WINDOW 3 32 56 VTop 2
SYMATTR InstName R6
SYMATTR Value 1k
SYMBOL cap 704 1120 M0
SYMATTR InstName C4
SYMATTR Value 1µ
SYMBOL res 640 1200 R90
WINDOW 0 0 56 VBottom 2
WINDOW 3 32 56 VTop 2
SYMATTR InstName R7
SYMATTR Value 1k
SYMBOL npn 3408 336 R270
SYMATTR InstName Q6
SYMATTR Value BCW60A
SYMBOL res 3408 352 R90
WINDOW 0 0 56 VBottom 2
WINDOW 3 32 56 VTop 2
SYMATTR InstName R15
SYMATTR Value 500
SYMBOL cap 3440 400 R0
SYMATTR InstName C6
SYMATTR Value 100n
SYMBOL voltage 2576 304 R0
WINDOW 123 0 0 Left 0
WINDOW 39 0 0 Left 0
SYMATTR InstName V6
SYMATTR Value 5
SYMBOL cap 3520 272 R0
SYMATTR InstName C7
SYMATTR Value 10µ
SYMBOL cap 3264 784 R0
SYMATTR InstName C8
SYMATTR Value 10µ
SYMBOL res 3744 464 R0
SYMATTR InstName R2
SYMATTR Value 500
SYMBOL res 3904 320 R0
SYMATTR InstName R16
SYMATTR Value 100
SYMBOL nmos 3968 464 M0
SYMATTR InstName M1
SYMATTR Value AP9465GEM
SYMBOL voltage 4048 544 R0
WINDOW 123 0 0 Left 0
WINDOW 39 0 0 Left 0
SYMATTR InstName V7
SYMATTR Value PULSE(0 5 200u 1u 1u 300u 500u 6)
SYMBOL cap 3616 272 R0
SYMATTR InstName C9
SYMATTR Value 10µ
SYMBOL cap 3664 272 R0
SYMATTR InstName C10
SYMATTR Value 100n
SYMBOL cap 3776 272 R0
SYMATTR InstName C11
SYMATTR Value 1µ
SYMBOL res 944 96 R0
SYMATTR InstName R17
SYMATTR Value 500
SYMBOL res 1104 -32 R0
SYMATTR InstName R18
SYMATTR Value 100
SYMBOL nmos 1168 96 M0
SYMATTR InstName M2
SYMATTR Value AP9465GEM
SYMBOL voltage 1248 176 R0
WINDOW 123 0 0 Left 0
WINDOW 39 0 0 Left 0
SYMATTR InstName V8
SYMATTR Value PULSE(0 5 200u 1u 1u 300u 500u 6)
SYMBOL cap 976 -32 R0
SYMATTR InstName C12
SYMATTR Value 1µ
SYMBOL res 3504 976 R0
SYMATTR InstName R19
SYMATTR Value 20
SYMBOL cap 3536 784 R0
SYMATTR InstName C13
SYMATTR Value 1µ
SYMBOL voltage 2208 960 R0
WINDOW 123 0 0 Left 0
WINDOW 39 0 0 Left 0
SYMATTR InstName V10
SYMATTR Value 9
SYMBOL voltage 2208 864 R0
WINDOW 3 35 73 Left 2
WINDOW 123 0 0 Left 0
WINDOW 39 0 0 Left 0
SYMATTR Value SINE(0 200mV 100k)
SYMATTR InstName V11
SYMBOL npn 2464 848 R270
SYMATTR InstName Q7
SYMATTR Value 2SCR502EB
SYMBOL res 2368 896 R270
WINDOW 0 32 56 VTop 2
WINDOW 3 0 56 VBottom 2
SYMATTR InstName R21
SYMATTR Value 500
SYMBOL cap 2496 912 R0
SYMATTR InstName C14
SYMATTR Value 470n
SYMBOL cap 3168 784 R0
SYMATTR InstName C17
SYMATTR Value 1n
SYMBOL PowerProducts\\ADP122-3.3 2912 896 R0
SYMATTR InstName U1
SYMBOL npn 2464 1152 R270
SYMATTR InstName Q5
SYMATTR Value 2SCR502EB
SYMBOL res 2368 1200 R270
WINDOW 0 32 56 VTop 2
WINDOW 3 0 56 VBottom 2
SYMATTR InstName R8
SYMATTR Value 500
SYMBOL cap 2496 1216 R0
SYMATTR InstName C5
SYMATTR Value 470n
SYMBOL cap 2672 784 R0
SYMATTR InstName C16
SYMATTR Value 1n
SYMBOL cap 2768 784 R0
SYMATTR InstName C15
SYMATTR Value 10µ
SYMBOL res 640 352 R90
WINDOW 0 0 56 VBottom 2
WINDOW 3 32 56 VTop 2
SYMATTR InstName R3
SYMATTR Value 511
SYMBOL res 640 656 R90
WINDOW 0 0 56 VBottom 2
WINDOW 3 32 56 VTop 2
SYMATTR InstName R4
SYMATTR Value 511
SYMBOL cap 672 400 R0
SYMATTR InstName C2
SYMATTR Value 470n
SYMBOL cap 672 704 R0
SYMATTR InstName C3
SYMATTR Value 470n
TEXT 136 -112 Left 2 !.tran 2m
